Version 4
SHEET 1 880 680
WIRE -112 64 -368 64
WIRE 48 64 -32 64
WIRE 192 64 48 64
WIRE 400 64 272 64
WIRE 400 96 400 64
WIRE -368 144 -368 64
WIRE -128 176 -208 176
WIRE -16 176 -48 176
WIRE 80 176 -16 176
WIRE 272 192 144 192
WIRE 400 192 272 192
WIRE 48 208 48 64
WIRE 80 208 48 208
WIRE -208 272 -208 176
WIRE -16 288 -16 176
WIRE 64 288 -16 288
WIRE 272 288 272 192
WIRE 272 288 144 288
WIRE -368 304 -368 224
WIRE -48 320 -48 176
WIRE -48 448 -48 400
FLAG 400 96 0
FLAG -208 272 0
FLAG -48 448 0
FLAG -368 304 0
SYMBOL OpAmps\\LT1012 112 128 R0
SYMATTR InstName U1
SYMBOL res -16 48 R90
WINDOW 0 0 56 VBottom 2
WINDOW 3 32 56 VTop 2
SYMATTR InstName R1
SYMATTR Value 5000
SYMBOL res 288 48 R90
WINDOW 0 0 56 VBottom 2
WINDOW 3 32 56 VTop 2
SYMATTR InstName R2
SYMATTR Value 10000
SYMBOL res -32 160 R90
WINDOW 0 0 56 VBottom 2
WINDOW 3 32 56 VTop 2
SYMATTR InstName R3
SYMATTR Value 6000
SYMBOL res -32 416 R180
WINDOW 0 36 76 Left 2
WINDOW 3 36 40 Left 2
SYMATTR InstName R4
SYMATTR Value 3000
SYMBOL res 160 272 R90
WINDOW 0 0 56 VBottom 2
WINDOW 3 32 56 VTop 2
SYMATTR InstName R5
SYMATTR Value 4000
SYMBOL Misc\\signal -368 128 R0
WINDOW 123 0 0 Left 0
WINDOW 39 0 0 Left 0
SYMATTR InstName V1
SYMATTR Value SINE(0 2 1)
