Version 4
SHEET 1 880 680
WIRE 240 64 240 -80
WIRE 16 240 -128 240
WIRE 240 240 240 144
WIRE 240 240 80 240
WIRE 16 384 -128 384
WIRE 240 384 240 240
WIRE 240 384 80 384
SYMBOL res 224 48 R0
SYMATTR InstName 1000
SYMBOL diode 80 224 R90
WINDOW 0 0 32 VBottom 2
WINDOW 3 32 32 VTop 2
SYMATTR InstName D_A
SYMBOL diode 80 368 R90
WINDOW 0 0 32 VBottom 2
WINDOW 3 32 32 VTop 2
SYMATTR InstName D_B
SYMBOL voltage 240 -64 R180
WINDOW 0 24 96 Left 2
WINDOW 3 24 16 Left 2
SYMATTR InstName 10V
