Version 4
SHEET 1 880 680
WIRE 80 144 16 144
WIRE 208 144 160 144
WIRE 352 144 208 144
WIRE 400 144 352 144
WIRE 208 160 208 144
WIRE 352 160 352 144
WIRE -144 224 -144 192
WIRE 240 224 208 224
WIRE 352 224 320 224
WIRE -144 336 -144 304
FLAG 16 144 Vin
IOPIN 16 144 In
FLAG 400 144 Vout
IOPIN 400 144 Out
FLAG -144 192 Vin
IOPIN -144 192 In
FLAG -144 336 0
SYMBOL res 176 128 R90
WINDOW 0 0 56 VBottom 2
WINDOW 3 32 56 VTop 2
SYMATTR InstName R1
SYMATTR Value 5K
SYMBOL voltage 224 224 R270
WINDOW 0 32 56 VTop 2
WINDOW 3 -32 56 VBottom 2
SYMATTR InstName V1
SYMATTR Value 5
SYMBOL voltage -144 208 R0
SYMATTR InstName V2
SYMATTR Value ""
SYMBOL diode 224 224 R180
WINDOW 0 24 64 Left 2
WINDOW 3 24 0 Left 2
SYMATTR InstName D1
SYMBOL diode 336 160 R0
SYMATTR InstName D2
TEXT -24 320 Left 2 !.tran 0 2ms 0 1u
