Version 4
SHEET 1 880 680
WIRE 80 144 16 144
WIRE 208 144 160 144
WIRE 352 144 208 144
WIRE 400 144 352 144
WIRE -144 224 -144 192
WIRE 208 224 208 144
WIRE 352 224 352 144
WIRE -144 336 -144 304
WIRE 208 352 208 304
WIRE 352 352 352 304
FLAG 16 144 Vin
IOPIN 16 144 In
FLAG 400 144 Vout
IOPIN 400 144 Out
FLAG -144 192 Vin
IOPIN -144 192 In
FLAG -144 336 0
FLAG 208 352 0
FLAG 352 352 0
SYMBOL res 176 128 R90
WINDOW 0 0 56 VBottom 2
WINDOW 3 32 56 VTop 2
SYMATTR InstName R1
SYMATTR Value 5K
SYMBOL voltage -144 208 R0
SYMATTR InstName V2
SYMATTR Value ""
SYMBOL voltage 208 208 R0
SYMATTR InstName V1
SYMATTR Value 5
SYMBOL voltage 352 320 R180
WINDOW 0 24 96 Left 2
WINDOW 3 24 16 Left 2
SYMATTR InstName V3
SYMATTR Value 5
TEXT -24 320 Left 2 !.dc V1 -2 2 0.1
