Version 4
SHEET 1 880 680
WIRE 384 64 64 64
WIRE 64 112 64 64
WIRE 384 112 384 64
WIRE 64 272 64 192
WIRE 384 272 384 192
WIRE 384 272 64 272
FLAG 384 272 0
SYMBOL res 400 208 R180
WINDOW 0 36 76 Left 2
WINDOW 3 36 40 Left 2
SYMATTR InstName R1
SYMATTR Value 1000
SYMBOL Misc\\signal 64 96 R0
WINDOW 123 0 0 Left 0
WINDOW 39 0 0 Left 0
SYMATTR InstName Vin
SYMATTR Value SINE(0 14 60)
TEXT 40 312 Left 2 !.tran 0 0.05 0 0.001
