Version 4
SHEET 1 932 680
WIRE 592 80 496 80
WIRE 496 144 -32 144
WIRE 848 144 592 144
WIRE -32 208 -32 144
WIRE 848 208 848 144
WIRE 496 224 496 144
WIRE 592 224 592 144
WIRE 592 288 496 288
WIRE -32 352 -32 288
WIRE 848 352 848 288
WIRE 848 352 -32 352
WIRE 848 368 848 352
FLAG 848 368 0
FLAG 848 144 Vout
SYMBOL Misc\\signal -32 192 R0
WINDOW 123 0 0 Left 0
WINDOW 39 0 0 Left 0
SYMATTR InstName Vin
SYMATTR Value SINE(0 16.97 60 0)
SYMBOL diode 512 144 R180
WINDOW 0 24 64 Left 2
WINDOW 3 24 0 Left 2
SYMATTR InstName D1
SYMBOL diode 576 80 R0
SYMATTR InstName D2
SYMBOL diode 512 288 R180
WINDOW 0 24 64 Left 2
WINDOW 3 24 0 Left 2
SYMATTR InstName D3
SYMBOL diode 576 224 R0
SYMATTR InstName D4
SYMBOL res 832 192 R0
SYMATTR InstName RL
SYMATTR Value 5000
TEXT 16 408 Left 2 !.model D D(Ron=1m Roff=100Meg Vfwd=0.5)
TEXT 56 448 Left 2 !.tran 1us 300ms 150ms
TEXT 8 480 Left 2 !.meas Vavg AVG V(Vout)
