Version 4
SHEET 1 880 680
WIRE 0 128 -112 128
WIRE 0 208 -112 208
SYMBOL ind2 -16 112 R0
SYMATTR InstName L1
SYMBOL ind2 112 224 R180
WINDOW 0 36 80 Left 2
WINDOW 3 36 40 Left 2
SYMATTR InstName L2
SYMBOL Misc\\signal -112 112 R0
SYMATTR InstName V1
