Version 4
SHEET 1 880 680
WIRE 48 112 -48 112
WIRE 240 112 128 112
WIRE 384 112 240 112
WIRE 240 144 240 112
WIRE -48 160 -48 112
WIRE 384 160 384 112
WIRE -48 272 -48 240
WIRE 240 272 240 224
WIRE 240 272 -48 272
WIRE 384 272 384 224
WIRE 384 272 240 272
WIRE 384 288 384 272
FLAG 384 288 0
FLAG 384 112 Vout
SYMBOL res 144 96 R90
WINDOW 0 0 56 VBottom 2
WINDOW 3 32 56 VTop 2
SYMATTR InstName R1
SYMATTR Value 20K
SYMBOL res 256 240 R180
WINDOW 0 36 76 Left 2
WINDOW 3 36 40 Left 2
SYMATTR InstName R2
SYMATTR Value 20K
SYMBOL cap 368 160 R0
SYMATTR InstName C1
SYMATTR Value 0.0000001
SYMBOL Misc\\signal -48 144 R0
WINDOW 123 24 132 Left 2
WINDOW 39 0 0 Left 0
SYMATTR InstName V1
SYMATTR Value2 AC 1
TEXT 392 240 Left 2 !.ic V(Vout)=0
TEXT -64 328 Left 2 !.ac dec 5 1 100000
