Version 4
SHEET 1 880 680
WIRE 32 160 -80 160
WIRE 176 160 96 160
WIRE 336 160 256 160
WIRE 528 160 416 160
SYMBOL diode 32 176 R270
WINDOW 0 32 32 VTop 2
WINDOW 3 0 32 VBottom 2
SYMATTR InstName D1
SYMBOL voltage 160 160 R270
WINDOW 0 32 56 VTop 2
WINDOW 3 -32 56 VBottom 2
SYMATTR InstName V1
SYMBOL res 432 144 R90
WINDOW 0 0 56 VBottom 2
WINDOW 3 32 56 VTop 2
SYMATTR InstName R1
TEXT -72 288 Left 2 !.dc Vin -2 2 0.1
