Version 4
SHEET 1 900 680
WIRE 48 16 16 16
WIRE 304 16 128 16
WIRE 512 16 384 16
WIRE 704 16 592 16
WIRE 864 16 704 16
WIRE 704 64 704 16
WIRE 16 144 16 16
WIRE 704 208 704 128
WIRE 16 320 16 224
FLAG 16 320 0
FLAG 704 208 0
SYMBOL res 144 0 R90
WINDOW 0 0 56 VBottom 2
WINDOW 3 32 56 VTop 2
SYMATTR InstName R1
SYMATTR Value 50
SYMBOL ind 288 32 R270
WINDOW 0 32 56 VTop 2
WINDOW 3 5 56 VBottom 2
SYMATTR InstName L1
SYMATTR Value 100n
SYMBOL res 608 0 R90
WINDOW 0 0 56 VBottom 2
WINDOW 3 32 56 VTop 2
SYMATTR InstName R2
SYMATTR Value 4
SYMBOL cap 688 64 R0
SYMATTR InstName C1
SYMATTR Value 10p
SYMBOL Misc\\signal 16 128 R0
WINDOW 123 0 0 Left 0
WINDOW 39 0 0 Left 0
SYMATTR InstName V1
SYMATTR Value PULSE(0 2.5 0 10p 10p 0.05m 1m)
TEXT -18 344 Left 2 !.tran 0 2ms 0 1u
