Version 4
SHEET 1 880 680
WIRE 128 112 16 112
WIRE 336 112 192 112
WIRE 16 192 16 112
WIRE 16 336 16 272
WIRE 336 336 336 112
WIRE 336 336 16 336
SYMBOL diode 128 128 R270
WINDOW 0 32 32 VTop 2
WINDOW 3 0 32 VBottom 2
SYMATTR InstName D1
SYMBOL voltage 16 176 R0
SYMATTR InstName V1
TEXT 0 416 Left 2 !.dc Vin -2 2 0.1
