Version 4
SHEET 1 1064 680
WIRE 864 -48 864 -112
WIRE 48 16 16 16
WIRE 304 16 128 16
WIRE 512 16 384 16
WIRE 704 16 592 16
WIRE 864 16 704 16
WIRE 704 64 704 16
WIRE 864 64 864 16
WIRE 1008 64 1008 -112
WIRE 16 144 16 16
WIRE 704 208 704 128
WIRE 864 208 864 128
WIRE 1008 208 1008 144
WIRE 16 320 16 224
FLAG 16 320 0
FLAG 704 208 0
FLAG 864 208 0
FLAG 1008 208 0
SYMBOL voltage 16 128 R0
SYMATTR InstName V1
SYMBOL res 144 0 R90
WINDOW 0 0 56 VBottom 2
WINDOW 3 32 56 VTop 2
SYMATTR InstName R1
SYMBOL ind 288 32 R270
WINDOW 0 32 56 VTop 2
WINDOW 3 5 56 VBottom 2
SYMATTR InstName L1
SYMBOL res 608 0 R90
WINDOW 0 0 56 VBottom 2
WINDOW 3 32 56 VTop 2
SYMATTR InstName R2
SYMBOL cap 688 64 R0
SYMATTR InstName C1
SYMBOL diode 880 16 R180
WINDOW 0 24 64 Left 2
WINDOW 3 24 0 Left 2
SYMATTR InstName D1
SYMBOL diode 880 128 R180
WINDOW 0 24 64 Left 2
WINDOW 3 24 0 Left 2
SYMATTR InstName D2
SYMBOL res 992 48 R0
SYMATTR InstName R3
