Version 4
SHEET 1 880 680
WIRE 240 48 176 48
WIRE 496 48 304 48
WIRE -32 128 -160 128
WIRE 64 128 48 128
WIRE 96 128 64 128
WIRE 176 128 176 48
WIRE 352 128 176 128
WIRE 496 144 496 48
WIRE 496 144 416 144
WIRE 352 160 320 160
WIRE -160 176 -160 128
WIRE 64 208 64 128
WIRE 176 224 176 128
WIRE 320 224 320 160
WIRE 496 224 496 144
WIRE 496 224 400 224
WIRE 320 288 320 224
WIRE -160 368 -160 256
WIRE 64 368 64 288
WIRE 176 368 176 288
WIRE 320 416 320 368
FLAG -160 368 0
FLAG 64 368 0
FLAG 176 368 0
FLAG 320 416 0
SYMBOL OpAmps\\LT1012 384 80 R0
SYMATTR InstName U1
SYMBOL cap 160 224 R0
SYMATTR InstName C2
SYMBOL res 64 112 R90
WINDOW 0 0 56 VBottom 2
WINDOW 3 32 56 VTop 2
SYMATTR InstName R1
SYMBOL res 80 304 R180
WINDOW 0 36 76 Left 2
WINDOW 3 36 40 Left 2
SYMATTR InstName R2
SYMBOL res 80 144 R270
WINDOW 0 32 56 VTop 2
WINDOW 3 0 56 VBottom 2
SYMATTR InstName R3
SYMBOL cap 304 32 R90
WINDOW 0 0 32 VBottom 2
WINDOW 3 32 32 VTop 2
SYMATTR InstName C1
SYMBOL res 416 208 R90
WINDOW 0 0 56 VBottom 2
WINDOW 3 32 56 VTop 2
SYMATTR InstName R4
SYMBOL res 336 384 R180
WINDOW 0 36 76 Left 2
WINDOW 3 36 40 Left 2
SYMATTR InstName R5
SYMBOL voltage -160 160 R0
SYMATTR InstName V1
