Version 4
SHEET 1 880 680
WIRE 336 176 160 176
WIRE 160 256 160 176
WIRE 160 256 64 256
WIRE 16 336 -208 336
WIRE 64 336 64 304
FLAG 160 16 0
FLAG 336 176 Vout
IOPIN 336 176 Out
FLAG 64 352 0
FLAG -208 416 0
SYMBOL res 144 80 R0
SYMATTR InstName RD
SYMATTR Value 150K
SYMBOL voltage 160 112 R180
WINDOW 0 24 96 Left 2
WINDOW 3 24 16 Left 2
SYMATTR InstName VDD
SYMATTR Value 2.5
SYMBOL nmos4 16 256 R0
SYMATTR InstName M1
SYMATTR Value2 l=1u w=100u
SYMATTR Value MYNMOS
SYMBOL voltage -208 320 R0
SYMATTR InstName Vin
SYMATTR Value ""
TEXT -88 424 Left 2 !.MODEL MYNMOS NMOS VTO=0.6 KP=30u LAMBDA=0 GAMMA=0
TEXT -64 488 Left 2 !.dc Vin 0 1 0.005
