Version 4
SHEET 1 880 680
WIRE 224 112 224 80
WIRE 224 112 112 112
WIRE 336 112 224 112
WIRE 448 160 336 160
WIRE 640 160 528 160
WIRE 64 192 -96 192
WIRE 112 272 112 208
WIRE 336 272 336 208
WIRE 336 272 112 272
WIRE 384 272 336 272
WIRE 448 272 384 272
WIRE 448 336 448 272
WIRE 288 352 288 192
FLAG 224 0 0
FLAG 448 336 Vout
IOPIN 448 336 Out
FLAG -96 272 0
FLAG 288 432 0
FLAG 384 336 0
FLAG 112 160 0
FLAG 640 160 0
SYMBOL nmos4 64 112 R0
SYMATTR InstName M1
SYMBOL pmos4 288 112 R0
SYMATTR InstName M2
SYMBOL Misc\\signal -96 176 R0
WINDOW 123 0 0 Left 0
WINDOW 39 0 0 Left 0
SYMATTR InstName VcontrolN
SYMATTR Value PULSE(1.8 0 0 1n 1n 0.5m 1m)
SYMBOL Misc\\signal 288 448 R180
WINDOW 0 24 104 Left 2
WINDOW 3 24 16 Left 2
SYMATTR InstName VcontrolP
SYMATTR Value PULSE(0 1.8 0 1n 1n 0.5m 1m)
SYMBOL cap 368 272 R0
SYMATTR InstName CL
SYMATTR Value 1n
SYMBOL voltage 432 160 R270
WINDOW 0 32 56 VTop 2
WINDOW 3 -32 56 VBottom 2
SYMATTR InstName Vdd
SYMATTR Value 1.8
SYMBOL voltage 224 96 R180
WINDOW 0 24 96 Left 2
WINDOW 3 24 16 Left 2
SYMATTR InstName Vin
SYMATTR Value SINE(0.9 0.9 100)
TEXT -104 528 Left 2 !.tran 0 0.1 0 0.000001
