Version 4
SHEET 1 880 680
WIRE 288 160 80 160
WIRE -224 240 -400 240
WIRE 32 240 -144 240
WIRE 144 240 80 240
WIRE 80 288 80 256
FLAG 288 160 Vout
IOPIN 288 160 Out
FLAG 80 0 0
FLAG -400 240 0
FLAG 80 288 0
FLAG 80 208 0
SYMBOL res 64 64 R0
SYMATTR InstName R1
SYMATTR Value 500k
SYMBOL voltage 80 96 R180
WINDOW 0 24 96 Left 2
WINDOW 3 24 68 Left 2
WINDOW 123 0 0 Left 0
WINDOW 39 0 0 Left 0
SYMATTR InstName Vdd
SYMATTR Value 2.5
SYMBOL voltage -128 240 R90
WINDOW 0 -32 56 VBottom 2
WINDOW 3 -4 56 VBottom 2
WINDOW 123 0 0 Left 0
WINDOW 39 0 0 Left 0
SYMATTR InstName Vin
SYMATTR Value SINE(0.61 10m 100)
SYMBOL nmos4 32 160 R0
SYMATTR InstName M1
SYMATTR Value MYNMOS
SYMATTR Value2 l=1u w=100u
TEXT -72 344 Left 2 !.tran 0 0.1 0 0.0000001
TEXT -56 408 Left 2 !.MODEL MYNMOS NMOS VTO=0.6 KP=30u LAMBDA=0 GAMMA=0
