Version 4
SHEET 1 880 680
WIRE -160 80 -320 80
WIRE 32 80 -96 80
WIRE -320 160 -320 80
WIRE 32 160 32 80
WIRE -320 320 -320 240
WIRE 32 320 32 240
FLAG -320 320 0
FLAG 32 320 0
SYMBOL diode -160 96 R270
WINDOW 0 32 32 VTop 2
WINDOW 3 0 32 VBottom 2
SYMATTR InstName D1
SYMBOL res 16 144 R0
SYMATTR InstName R1
SYMATTR Value 10K
SYMBOL Misc\\signal -320 144 R0
WINDOW 123 0 0 Left 0
WINDOW 39 0 0 Left 0
SYMATTR InstName Vin
SYMATTR Value SINE(0 10 1K)
TEXT -328 392 Left 2 !.dc Vin -2 2 0.1
